Circuit: * C:\Users\wesle\Desktop\Draft3.asc

WARNING: Less than two connections to node VCC.  This node is used by V1.
WARNING: Less than two connections to node VSS.  This node is used by V2.
Direct Newton iteration for .op point succeeded.

Date: Wed Nov 04 18:28:18 2020
Total elapsed time: 0.223 seconds.

tnom = 27
temp = 27
method = modified trap
totiter = 2085
traniter = 2082
tranpoints = 1042
accept = 1042
rejected = 0
matrix size = 4
fillins = 0
solver = Normal
Matrix Compiler1: off  [0.0]/0.1/0.1
Matrix Compiler2: 160 bytes object code size  0.1/0.1/[0.1]

